 &CAL_NML
 TheCalendar='gregorian',
 startDate_1=19900501,
 startDate_2=000000,
 &

